   69
 
 C    -3.539255    -1.261161     2.019822
 C    -2.433068    -0.634454     1.412521
 C    -1.189430    -0.614928     2.090053
 C    -1.091051    -1.264323     3.345886
 C    -2.197327    -1.884033     3.921956
 C    -3.420144    -1.876574     3.263612
 P    -2.666104     0.119985    -0.266162
 O    -4.190773    -0.032290    -0.522254
 C    -1.977055    -0.946874    -1.593710
 C    -2.116363    -2.339304    -1.505621
 C    -1.610847    -3.161214    -2.516963
 C    -0.976289    -2.595155    -3.625506
 C    -0.848364    -1.206936    -3.723078
 C    -1.344987    -0.382458    -2.706444
 C    -2.346437     1.931621    -0.439963
 C    -3.405209     2.826797    -0.662784
 C    -3.151748     4.195961    -0.794113
 C    -1.843150     4.677932    -0.705698
 C    -1.036239     2.422407    -0.356279
 O    -0.097628     0.003875     1.541623
 C     0.928671     0.538498     2.274010
 C     2.264008     0.479515     1.806203
 C     3.300280     0.996638     2.604630
 C     3.024302     1.584980     3.837757
 C     1.712198     1.671304     4.291041
 C     0.671471     1.156060     3.520101
 P     2.693775    -0.229981     0.150981
 O     4.244622    -0.311888     0.145957
 C     2.153244    -1.954441    -0.223577
 C     2.379869     1.035144    -1.147623
 C     2.841175     2.346275    -0.959978
 C     2.614340     3.318338    -1.938890
 C     1.929504     2.983980    -3.109859
 C     1.474874     1.676925    -3.302628
 C     1.700415     0.704577    -2.322331
 C     2.521861    -2.551663    -1.437801
 C     2.104847    -3.852106    -1.737414
 C     1.323106    -4.564102    -0.823844
 C     0.962275    -3.977786     0.392188
 C     1.377851    -2.677374     0.693585
 H    -3.970287     4.883309    -0.964361
 H    -4.423822     2.470115    -0.733121
 H     3.372799     2.613401    -0.055695
 H     1.753854     3.735907    -3.868117
 H     0.948897     1.417594    -4.211812
 H     1.354069    -0.302372    -2.478965
 H    -0.587587    -3.231247    -4.410055
 H    -0.361655    -0.769607    -4.584857
 H    -1.713938    -4.236018    -2.442826
 H    -2.611453    -2.785415    -0.652542
 H    -1.245773     0.691119    -2.791612
 H     3.126364    -2.007400    -2.152056
 H     2.386865    -4.307232    -2.677929
 H     1.000116    -5.570460    -1.056516
 H     0.361382    -4.531150     1.102190
 H     1.099309    -2.242111     1.639803
 H    -0.340235     1.237374     3.895536
 H     1.499407     2.137070     5.244635
 H     3.830850     1.985097     4.438578
 H     4.326836     0.959896     2.266844
 H    -2.104096    -2.372488     4.883393
 H    -0.151937    -1.297142     3.881239
 H    -4.278742    -2.358677     3.713129
 H     2.968928     4.329840    -1.789425
 C    -0.786132     3.791199    -0.487605
 H    -1.648316     5.737643    -0.807709
 H    -0.210523     1.748481    -0.197301
 H     0.227149     4.164530    -0.421627
 H    -4.500476    -1.287272     1.526368
